Parallel_Version/Distrib/EPRITestCircuits/ckt24/lines_ckt24.dss
New	Line.05410_10000108732UG	bus1=N284067.1	bus2=N284069.1	linecode=UG_1/0_Al_XLPE_35kV_1_Phase	phases=1	length=8.9906	units=ft
New	Line.05410_10000108797UG	bus1=N292548.1.2.3	bus2=N292535.1.2.3	linecode=UG_1/0_Al_XLPE_35kV	phases=3	length=208.024	units=ft
New	Line.05410_10000339601OH	bus1=N284033_lo.3	bus2=N284031.3	geometry=OH3P_FR8_N56_OH_1/0_AAAC_6201_OH_1/0_AAAC_6201_CN	phases=1	length=22.9889	units=ft
New	Line.05410_10000339807OH	bus1=N284158.1.2.3	bus2=N284141.1.2.3	geometry=OH3P_FR8_N56_OH_477_AAC_OH_336_AAC_ABCN	phases=3	length=97.2074	units=ft
New	Line.05410_10051444120OH	bus1=N1381582.1	bus2=N1413717.1	geometry=OH3P_FR8_N56_OH_1/0_AAAC_6201_OH_1/0_AAAC_6201_AN	phases=1	length=18.7875	units=ft
New	Line.05410_10094019OH	bus1=N284453.1	bus2=N284454.1	geometry=OH3P_ARMLPIN_N30_OH_1/0_AAAC_6201_OH_1/0_AAAC_6201_AN	phases=1	length=169.9348	units=ft
New	Line.05410_10105185UG	bus1=N292280.1.2.3	bus2=N292283.1.2.3	linecode=UG_1/0_Al_XLPE_35kV	phases=3	length=29.4437	units=ft
New	Line.05410_103405UG	bus1=N284404.1	bus2=N284426.1	linecode=UG_1/0_Al_XLPE_35kV_1_Phase	phases=1	length=400.456	units=ft
New	Line.05410_103406UG	bus1=N284426.1	bus2=N292979.1	linecode=UG_1/0_Al_XLPE_35kV_1_Phase	phases=1	length=487.9323	units=ft
New	Line.05410_103407UG	bus1=N284382.1	bus2=N284387.1	linecode=UG_1/0_Al_XLPE_35kV_1_Phase	phases=1	length=393.2572	units=ft
New	Line.05410_103408UG	bus1=N284397.1	bus2=N284394.1	linecode=UG_1/0_Al_XLPE_35kV_1_Phase	phases=1	length=1254.0305	units=ft
New	Line.05410_103409UG	bus1=N284394.1	bus2=N284433.1	linecode=UG_1/0_Al_XLPE_35kV_1_Phase	phases=1	length=671.2453	units=ft
New	Line.05410_103410UG	bus1=N284433.1	bus2=N284414.1	linecode=UG_1/0_Al_XLPE_35kV_1_Phase	phases=1	length=633.0038	units=ft
New	Line.05410_103411UG	bus1=N284367.1	bus2=N284387.1	linecode=UG_1/0_Al_XLPE_35kV_1_Phase	phases=1	length=755.2763	units=ft
New	Line.05410_103412UG	bus1=N284414.1	bus2=N284372.1	linecode=UG_1/0_Al_XLPE_35kV_1_Phase	phases=1	length=1141.5473	units=ft
New	Line.05410_103431UG	bus1=N284372.1	bus2=N284383.1	linecode=UG_1/0_Al_XLPE_35kV_1_Phase	phases=1	length=580.9742	units=ft
New	Line.05410_107740UG	bus1=N312486.1.2	bus2=N312424.1.2	linecode=UG_1/0_Al_XLPE_35kV_1_Phase	phases=2	length=576.2141	units=ft
New	Line.05410_107741UG	bus1=N312492.2	bus2=N312536.2	linecode=UG_1/0_Al_XLPE_35kV_1_Phase	phases=1	length=446.3274	units=ft
New	Line.05410_107742UG	bus1=N300533.3	bus2=N312395.3	linecode=UG_1/0_Al_XLPE_35kV_1_Phase	phases=1	length=475.9373	units=ft
!New	Line.05410_107743UG	bus1=N300512.3	bus2=N300533.3	linecode=UG_1/0_Al_XLPE_35kV_1_Phase	phases=1	length=299.3687	units=ft
New	Line.05410_107744UG	bus1=N300557.3	bus2=N300550.3	linecode=UG_1/0_Al_XLPE_35kV_1_Phase	phases=1	length=179.0874	units=ft
New	Line.05410_107745UG	bus1=N300576.3	bus2=N300557.3	linecode=UG_1/0_Al_XLPE_35kV_1_Phase	phases=1	length=403.6284	units=ft
New	Line.05410_107746UG	bus1=N300591.3	bus2=N300576.3	linecode=UG_1/0_Al_XLPE_35kV_1_Phase	phases=1	length=235.1369	units=ft
New	Line.05410_107747UG	bus1=N300591.3	bus2=N312512.3	linecode=UG_1/0_Al_XLPE_35kV_1_Phase	phases=1	length=338.6571	units=ft
New	Line.05410_107748UG	bus1=N300612.2	bus2=N300587.2	linecode=UG_1/0_Al_XLPE_35kV_1_Phase	phases=1	length=276.7722	units=ft
New	Line.05410_107749UG	bus1=N300566.2	bus2=N300587.2	linecode=UG_1/0_Al_XLPE_35kV_1_Phase	phases=1	length=399.3826	units=ft
New	Line.05410_107750UG	bus1=N300555.2	bus2=N300566.2	linecode=UG_1/0_Al_XLPE_35kV_1_Phase	phases=1	length=171.806	units=ft
!New	Line.05410_107751UG	bus1=N300529.2	bus2=N300555.2	linecode=UG_1/0_Al_XLPE_35kV_1_Phase	phases=1	length=404.4335	units=ft
New	Line.05410_107752UG	bus1=N300570.1	bus2=N300593.1	linecode=UG_1/0_Al_XLPE_35kV_1_Phase	phases=1	length=366.603	units=ft
New	Line.05410_107753UG	bus1=N300593.1	bus2=N300609.1	linecode=UG_1/0_Al_XLPE_35kV_1_Phase	phases=1	length=153.5635	units=ft
New	Line.05410_107754UG	bus1=N300609.1	bus2=N300614.1	linecode=UG_1/0_Al_XLPE_35kV_1_Phase	phases=1	length=84.3303	units=ft
New	Line.05410_107755UG	bus1=N300468.2	bus2=N300452.2	linecode=UG_1/0_Al_XLPE_35kV_1_Phase	phases=1	length=1139.7945	units=ft
New	Line.05410_107756UG	bus1=N312429.1.2.3	bus2=N312419.1.2.3	linecode=UG_1/0_Al_XLPE_35kV	phases=3	length=135.669	units=ft
New	Line.05410_107757UG	bus1=N312351.1.2.3	bus2=N312429.1.2.3	linecode=UG_1/0_Al_XLPE_35kV	phases=3	length=923.5143	units=ft
New	Line.05410_107814UG	bus1=N300674.1	bus2=N300664.1	linecode=UG_1/0_Al_XLPE_35kV_1_Phase	phases=1	length=167.2094	units=ft
New	Line.05410_107815UG	bus1=N300676.1	bus2=N300674.1	linecode=UG_1/0_Al_XLPE_35kV_1_Phase	phases=1	length=192.1878	units=ft
New	Line.05410_107816UG	bus1=N300654.1.3	bus2=N300656.1.3	linecode=UG_1/0_Al_XLPE_35kV_1_Phase	phases=2	length=53.5978	units=ft
New	Line.05410_107817UG	bus1=N300717.3	bus2=N300714.3	linecode=UG_1/0_Al_XLPE_35kV_1_Phase	phases=1	length=167.5406	units=ft
New	Line.05410_107818UG	bus1=N300719.3	bus2=N300717.3	linecode=UG_1/0_Al_XLPE_35kV_1_Phase	phases=1	length=207.8735	units=ft
New	Line.05410_107819UG	bus1=N300742.3	bus2=N300740.3	linecode=UG_1/0_Al_XLPE_35kV_1_Phase	phases=1	length=162.3977	units=ft
New	Line.05410_107820UG	bus1=N300740.3	bus2=N300736.3	linecode=UG_1/0_Al_XLPE_35kV_1_Phase	phases=1	length=243.4006	units=ft
New	Line.05410_107821UG	bus1=N300750.3	bus2=N300736.3	linecode=UG_1/0_Al_XLPE_35kV_1_Phase	phases=1	length=369.5182	units=ft
New	Line.05410_107822UG	bus1=N300762.3	bus2=N300750.3	linecode=UG_1/0_Al_XLPE_35kV_1_Phase	phases=1	length=550.7315	units=ft
New	Line.05410_107823UG	bus1=N300764.3	bus2=N300762.3	linecode=UG_1/0_Al_XLPE_35kV_1_Phase	phases=1	length=330.3901	units=ft
New	Line.05410_107824UG	bus1=N300678.1	bus2=N300646.1	linecode=UG_1/0_Al_XLPE_35kV_1_Phase	phases=1	length=424.5257	units=ft
New	Line.05410_107825UG	bus1=N300728.1	bus2=N300678.1	linecode=UG_1/0_Al_XLPE_35kV_1_Phase	phases=1	length=640.7369	units=ft
New	Line.05410_107826UG	bus1=N312566.1	bus2=N300678.1	linecode=UG_1/0_Al_XLPE_35kV_1_Phase	phases=1	length=368.7539	units=ft
New	Line.05410_107827UG	bus1=N312588.1	bus2=N312566.1	linecode=UG_1/0_Al_XLPE_35kV_1_Phase	phases=1	length=308.6422	units=ft
New	Line.05410_107828UG	bus1=N312588.1	bus2=N312602.1	linecode=UG_1/0_Al_XLPE_35kV_1_Phase	phases=1	length=346.4753	units=ft
New	Line.05410_107829UG	bus1=N312602.1	bus2=N312606.1	linecode=UG_1/0_Al_XLPE_35kV_1_Phase	phases=1	length=17.9808	units=ft
New	Line.05410_107830UG	bus1=N312610.1	bus2=N312606.1	linecode=UG_1/0_Al_XLPE_35kV_1_Phase	phases=1	length=469.4911	units=ft
New	Line.05410_107831UG	bus1=N312595.1.2	bus2=N312599.1.2	linecode=UG_1/0_Al_XLPE_35kV_1_Phase	phases=2	length=164	units=ft
New	Line.05410_107832UG	bus1=N312615.1.2	bus2=N312625.1.2	linecode=UG_1/0_Al_XLPE_35kV_1_Phase	phases=2	length=84.9689	units=ft
New	Line.05410_107833UG	bus1=N300612.2	bus2=N300653.2	linecode=UG_1/0_Al_XLPE_35kV_1_Phase	phases=1	length=410.6636	units=ft
New	Line.05410_107834UG	bus1=N312486.1	bus2=N312551.1	linecode=UG_1/0_Al_XLPE_35kV_1_Phase	phases=1	length=1298.5812	units=ft
New	Line.05410_107835UG	bus1=N312595.2	bus2=N312536.2	linecode=UG_1/0_Al_XLPE_35kV_1_Phase	phases=1	length=585	units=ft
New	Line.05410_107836UG	bus1=N312512.3	bus2=N312510.3	linecode=UG_1/0_Al_XLPE_35kV_1_Phase	phases=1	length=16.6622	units=ft
New	Line.05410_107837UG	bus1=N312584.1	bus2=N312568.1	linecode=UG_1/0_Al_XLPE_35kV_1_Phase	phases=1	length=262.5337	units=ft
New	Line.05410_107838UG	bus1=N312584.1	bus2=N312595.1	linecode=UG_1/0_Al_XLPE_35kV_1_Phase	phases=1	length=120	units=ft
New	Line.05410_107839UG	bus1=N312509.2	bus2=N312486.2	linecode=UG_1/0_Al_XLPE_35kV_1_Phase	phases=1	length=185.9723	units=ft
New	Line.05410_107840UG	bus1=N312509.2	bus2=N312558.2	linecode=UG_1/0_Al_XLPE_35kV_1_Phase	phases=1	length=479.4682	units=ft
New	Line.05410_107841UG	bus1=N312581.2	bus2=N312558.2	linecode=UG_1/0_Al_XLPE_35kV_1_Phase	phases=1	length=347.2704	units=ft
New	Line.05410_108051UG	bus1=N300646.1	bus2=N300614.1	linecode=UG_1/0_Al_XLPE_35kV_1_Phase	phases=1	length=364.0127	units=ft
New	Line.05410_108052UG	bus1=N300656.3	bus2=N300711.3	linecode=UG_1/0_Al_XLPE_35kV_1_Phase	phases=1	length=588.5996	units=ft
New	Line.05410_108053UG	bus1=N312366.1.2	bus2=N312424.1.2	linecode=UG_1/0_Al_XLPE_35kV_1_Phase	phases=2	length=599.8113	units=ft
!New	Line.05410_108054UG	bus1=N300512.3	bus2=N312343.3	linecode=UG_1/0_Al_XLPE_35kV_1_Phase	phases=1	length=525.8036	units=ft
New	Line.05410_108055UG	bus1=N312345.1.2.3	bus2=N300518.1.2.3	linecode=UG_1/0_Al_XLPE_35kV	phases=3	length=663.447	units=ft
New	Line.05410_108056UG	bus1=N300519.3	bus2=N300522.3	linecode=UG_1/0_Al_XLPE_35kV_1_Phase	phases=1	length=38.3465	units=ft
New	Line.05410_108057UG	bus1=N300524.2	bus2=N300529.2	linecode=UG_1/0_Al_XLPE_35kV_1_Phase	phases=1	length=44.4032	units=ft
New	Line.05410_108122UG	bus1=N312395.3	bus2=N312436.3	linecode=UG_1/0_Al_XLPE_35kV_1_Phase	phases=1	length=330.4073	units=ft
New	Line.05410_108168UG	bus1=N312366.1.2	bus2=N312340.1.2	linecode=UG_1/0_Al_XLPE_35kV_1_Phase	phases=2	length=314.5419	units=ft
New	Line.05410_108171UG	bus1=N312290_lo.1.2.3	bus2=N312312.1.2.3	linecode=UG_1/0_Al_XLPE_35kV	phases=3	length=103.8318	units=ft
New	Line.05410_108193UG	bus1=N284344.1	bus2=N284348.1	linecode=UG_1/0_Al_XLPE_35kV_1_Phase	phases=1	length=313.0728	units=ft
New	Line.05410_108194UG	bus1=N292874.1	bus2=N284317.1	linecode=UG_1/0_Al_XLPE_35kV_1_Phase	phases=1	length=375.8073	units=ft
New	Line.05410_108195UG	bus1=N284346.1	bus2=N284358.1	linecode=UG_1/0_Al_XLPE_35kV_1_Phase	phases=1	length=526.088	units=ft
New	Line.05410_108196UG	bus1=N284336.1	bus2=N284346.1	linecode=UG_1/0_Al_XLPE_35kV_1_Phase	phases=1	length=602.6254	units=ft
New	Line.05410_108197UG	bus1=N284341.1	bus2=N284336.1	linecode=UG_1/0_Al_XLPE_35kV_1_Phase	phases=1	length=582.1279	units=ft
New	Line.05410_108272UG	bus1=N284291.1	bus2=N284309.1	linecode=UG_1/0_Al_XLPE_35kV_1_Phase	phases=1	length=594.5595	units=ft
New	Line.05410_108273UG	bus1=N284273.1	bus2=N284291.1	linecode=UG_1/0_Al_XLPE_35kV_1_Phase	phases=1	length=638.2491	units=ft
New	Line.05410_108274UG	bus1=N284236.1	bus2=N284273.1	linecode=UG_1/0_Al_XLPE_35kV_1_Phase	phases=1	length=573.9186	units=ft
New	Line.05410_108275UG	bus1=N284270.1	bus2=N284246.1	linecode=UG_1/0_Al_XLPE_35kV_1_Phase	phases=1	length=292.5669	units=ft
New	Line.05410_108276UG	bus1=N292846.1	bus2=N284270.1	linecode=UG_1/0_Al_XLPE_35kV_1_Phase	phases=1	length=666.7691	units=ft
New	Line.05410_108277UG	bus1=N292874.1	bus2=N292863.1	linecode=UG_1/0_Al_XLPE_35kV_1_Phase	phases=1	length=220.3258	units=ft
New	Line.05410_108278UG	bus1=N292863.1	bus2=N292846.1	linecode=UG_1/0_Al_XLPE_35kV_1_Phase	phases=1	length=449.0924	units=ft
New	Line.05410_108322UG	bus1=N283913.3	bus2=N283938.3	linecode=UG_1/0_Al_XLPE_35kV_1_Phase	phases=1	length=507.8605	units=ft
New	Line.05410_108323UG	bus1=N284085.2	bus2=N284034.2	linecode=UG_1/0_Al_XLPE_35kV_1_Phase	phases=1	length=895.213	units=ft
New	Line.05410_108324UG	bus1=N284119.2	bus2=N284085.2	linecode=UG_1/0_Al_XLPE_35kV_1_Phase	phases=1	length=901.1824	units=ft
New	Line.05410_108325UG	bus1=N284119.2	bus2=N284126.2	linecode=UG_1/0_Al_XLPE_35kV_1_Phase	phases=1	length=654.6635	units=ft
New	Line.05410_108326UG	bus1=N284126.2	bus2=N284117.2	linecode=UG_1/0_Al_XLPE_35kV_1_Phase	phases=1	length=464.1481	units=ft
New	Line.05410_108327UG	bus1=N284117.2	bus2=N292718.2	linecode=UG_1/0_Al_XLPE_35kV_1_Phase	phases=1	length=557.5036	units=ft
New	Line.05410_108328UG	bus1=N292718.2	bus2=N292730.2	linecode=UG_1/0_Al_XLPE_35kV_1_Phase	phases=1	length=437.788	units=ft
New	Line.05410_108329UG	bus1=N292715.2	bus2=N292725.2	linecode=UG_1/0_Al_XLPE_35kV_1_Phase	phases=1	length=316.8741	units=ft
New	Line.05410_108330UG	bus1=N292699.2	bus2=N292715.2	linecode=UG_1/0_Al_XLPE_35kV_1_Phase	phases=1	length=710.6102	units=ft
New	Line.05410_108331UG	bus1=N292699.2	bus2=N292703.2	linecode=UG_1/0_Al_XLPE_35kV_1_Phase	phases=1	length=460.2369	units=ft
New	Line.05410_108332UG	bus1=N284102.2	bus2=N292703.2	linecode=UG_1/0_Al_XLPE_35kV_1_Phase	phases=1	length=767.7756	units=ft
New	Line.05410_108333UG	bus1=N284078.2	bus2=N284102.2	linecode=UG_1/0_Al_XLPE_35kV_1_Phase	phases=1	length=414.5128	units=ft
New	Line.05410_108334UG	bus1=N292669.2	bus2=N284078.2	linecode=UG_1/0_Al_XLPE_35kV_1_Phase	phases=1	length=479.1218	units=ft
New	Line.05410_108335UG	bus1=N292669.2	bus2=N284041.2	linecode=UG_1/0_Al_XLPE_35kV_1_Phase	phases=1	length=658.5704	units=ft
New	Line.05410_108336UG	bus1=N283999.2	bus2=N284041.2	linecode=UG_1/0_Al_XLPE_35kV_1_Phase	phases=1	length=982.3287	units=ft
New	Line.05410_108337UG	bus1=N284185.3	bus2=N284183.3	linecode=UG_1/0_Al_XLPE_35kV_1_Phase	phases=1	length=530.3668	units=ft
New	Line.05410_108338UG	bus1=N284183.3	bus2=N284174.3	linecode=UG_1/0_Al_XLPE_35kV_1_Phase	phases=1	length=322.1583	units=ft
New	Line.05410_108339UG	bus1=N284174.3	bus2=N284177.3	linecode=UG_1/0_Al_XLPE_35kV_1_Phase	phases=1	length=678.069	units=ft
New	Line.05410_108340UG	bus1=N284130.3	bus2=N284147.3	linecode=UG_1/0_Al_XLPE_35kV_1_Phase	phases=1	length=568.2389	units=ft
New	Line.05410_108341UG	bus1=N284155.3	bus2=N284164.3	linecode=UG_1/0_Al_XLPE_35kV_1_Phase	phases=1	length=291.7259	units=ft
New	Line.05410_108342UG	bus1=N292554.1.2.3	bus2=N292545.1.2.3	linecode=UG_1/0_Al_XLPE_35kV	phases=3	length=672.5992	units=ft
New	Line.05410_108343UG	bus1=N292635.1	bus2=N292643.1	linecode=UG_1/0_Al_XLPE_35kV_1_Phase	phases=1	length=114.7463	units=ft
New	Line.05410_108344UG	bus1=N292637.1	bus2=N292642.1	linecode=UG_1/0_Al_XLPE_35kV_1_Phase	phases=1	length=130.0514	units=ft
New	Line.05410_108345UG	bus1=N292642.1	bus2=N292651.1	linecode=UG_1/0_Al_XLPE_35kV_1_Phase	phases=1	length=316.4265	units=ft
New	Line.05410_108346UG	bus1=N292651.1	bus2=N292658.1	linecode=UG_1/0_Al_XLPE_35kV_1_Phase	phases=1	length=441.0592	units=ft
New	Line.05410_108347UG	bus1=N292652.1	bus2=N292645.1	linecode=UG_1/0_Al_XLPE_35kV_1_Phase	phases=1	length=492.6932	units=ft
New	Line.05410_108348UG	bus1=N292647.1	bus2=N292665.1	linecode=UG_1/0_Al_XLPE_35kV_1_Phase	phases=1	length=746.9342	units=ft
New	Line.05410_108349UG	bus1=N292661.1	bus2=N292665.1	linecode=UG_1/0_Al_XLPE_35kV_1_Phase	phases=1	length=72.9577	units=ft
New	Line.05410_108350UG	bus1=N292560.1.2.3	bus2=N292554.1.2.3	linecode=UG_1/0_Al_XLPE_35kV	phases=3	length=190.9662	units=ft
New	Line.05410_108351UG	bus1=N292674.1.2.3	bus2=N292666.1.2.3	linecode=UG_1/0_Al_XLPE_35kV	phases=3	length=339.8746	units=ft
New	Line.05410_108352UG	bus1=N292676.1.2.3	bus2=N292678.1.2.3	linecode=UG_1/0_Al_XLPE_35kV	phases=3	length=394.9873	units=ft
New	Line.05410_108353UG	bus1=N292678.1.2.3	bus2=N292679.1.2.3	linecode=UG_1/0_Al_XLPE_35kV	phases=3	length=392.7381	units=ft
New	Line.05410_108354UG	bus1=N292683.1.2.3	bus2=N292684.1.2.3	linecode=UG_1/0_Al_XLPE_35kV	phases=3	length=95.306	units=ft
New	Line.05410_108355UG	bus1=N292674.1	bus2=N292670.1	linecode=UG_1/0_Al_XLPE_35kV_1_Phase	phases=1	length=187.2639	units=ft
New	Line.05410_108358UG	bus1=N292747.1.2.3	bus2=N292744.1.2.3	linecode=UG_1/0_Al_XLPE_35kV	phases=3	length=43.4133	units=ft
New	Line.05410_108360UG	bus1=N292743.1.2.3	bus2=N292740.1.2.3	linecode=UG_1/0_Al_XLPE_35kV	phases=3	length=443.8276	units=ft
New	Line.05410_108361UG	bus1=N292777.3	bus2=N292774.3	linecode=UG_1/0_Al_XLPE_35kV_1_Phase	phases=1	length=509.6214	units=ft
New	Line.05410_108362UG	bus1=N292774.3	bus2=N292779.3	linecode=UG_1/0_Al_XLPE_35kV_1_Phase	phases=1	length=572.7792	units=ft
New	Line.05410_108363UG	bus1=N292779.3	bus2=N292790.3	linecode=UG_1/0_Al_XLPE_35kV_1_Phase	phases=1	length=583.8263	units=ft
New	Line.05410_108364UG	bus1=N292790.3	bus2=N292802.3	linecode=UG_1/0_Al_XLPE_35kV_1_Phase	phases=1	length=293.9129	units=ft
New	Line.05410_108365UG	bus1=N292805.3	bus2=N292802.3	linecode=UG_1/0_Al_XLPE_35kV_1_Phase	phases=1	length=977.6452	units=ft
New	Line.05410_108366UG	bus1=N292815.3	bus2=N292805.3	linecode=UG_1/0_Al_XLPE_35kV_1_Phase	phases=1	length=693.2405	units=ft
New	Line.05410_108367UG	bus1=N292815.3	bus2=N292819.3	linecode=UG_1/0_Al_XLPE_35kV_1_Phase	phases=1	length=580.0276	units=ft
New	Line.05410_108368UG	bus1=N292819.3	bus2=N292825.3	linecode=UG_1/0_Al_XLPE_35kV_1_Phase	phases=1	length=654.7983	units=ft
New	Line.05410_108369UG	bus1=N292825.3	bus2=N292837.3	linecode=UG_1/0_Al_XLPE_35kV_1_Phase	phases=1	length=449.9306	units=ft
New	Line.05410_108370UG	bus1=N292837.3	bus2=N292855.3	linecode=UG_1/0_Al_XLPE_35kV_1_Phase	phases=1	length=674.6733	units=ft
New	Line.05410_108371UG	bus1=N292855.3	bus2=N292867.3	linecode=UG_1/0_Al_XLPE_35kV_1_Phase	phases=1	length=461.8905	units=ft
New	Line.05410_108372UG	bus1=N292867.3	bus2=N292877.3	linecode=UG_1/0_Al_XLPE_35kV_1_Phase	phases=1	length=398.6834	units=ft
New	Line.05410_108373UG	bus1=N292877.3	bus2=N292882.3	linecode=UG_1/0_Al_XLPE_35kV_1_Phase	phases=1	length=431.3269	units=ft
New	Line.05410_108374UG	bus1=N292882.3	bus2=N292872.3	linecode=UG_1/0_Al_XLPE_35kV_1_Phase	phases=1	length=486.5603	units=ft
New	Line.05410_108375UG	bus1=N292872.3	bus2=N292866.3	linecode=UG_1/0_Al_XLPE_35kV_1_Phase	phases=1	length=373.1766	units=ft
New	Line.05410_108376UG	bus1=N292852.3	bus2=N292841.3	linecode=UG_1/0_Al_XLPE_35kV_1_Phase	phases=1	length=441.1524	units=ft
New	Line.05410_108377UG	bus1=N292841.3	bus2=N292832.3	linecode=UG_1/0_Al_XLPE_35kV_1_Phase	phases=1	length=459.1358	units=ft
New	Line.05410_108378UG	bus1=N292832.3	bus2=N300997.3	linecode=UG_1/0_Al_XLPE_35kV_1_Phase	phases=1	length=966.5608	units=ft
New	Line.05410_108380UG	bus1=N292778.2	bus2=N292772.2	linecode=UG_1/0_Al_XLPE_35kV_1_Phase	phases=1	length=756.4713	units=ft
New	Line.05410_108381UG	bus1=N292786.2	bus2=N292778.2	linecode=UG_1/0_Al_XLPE_35kV_1_Phase	phases=1	length=474.9426	units=ft
New	Line.05410_108382UG	bus1=N292788.2	bus2=N292786.2	linecode=UG_1/0_Al_XLPE_35kV_1_Phase	phases=1	length=227.134	units=ft
New	Line.05410_108383UG	bus1=N292801.2	bus2=N292788.2	linecode=UG_1/0_Al_XLPE_35kV_1_Phase	phases=1	length=411.4294	units=ft
New	Line.05410_108384UG	bus1=N292798.2	bus2=N292801.2	linecode=UG_1/0_Al_XLPE_35kV_1_Phase	phases=1	length=408.1836	units=ft
New	Line.05410_108385UG	bus1=N292811.2	bus2=N292798.2	linecode=UG_1/0_Al_XLPE_35kV_1_Phase	phases=1	length=503.5571	units=ft
New	Line.05410_108386UG	bus1=N292809.2	bus2=N292811.2	linecode=UG_1/0_Al_XLPE_35kV_1_Phase	phases=1	length=566.8036	units=ft
New	Line.05410_108387UG	bus1=N292813.2	bus2=N292809.2	linecode=UG_1/0_Al_XLPE_35kV_1_Phase	phases=1	length=87.1434	units=ft
New	Line.05410_108388UG	bus1=N292821.2	bus2=N292813.2	linecode=UG_1/0_Al_XLPE_35kV_1_Phase	phases=1	length=358.5101	units=ft
New	Line.05410_108389UG	bus1=N292827.2	bus2=N292821.2	linecode=UG_1/0_Al_XLPE_35kV_1_Phase	phases=1	length=295.7892	units=ft
New	Line.05410_108390UG	bus1=N292831.2	bus2=N292827.2	linecode=UG_1/0_Al_XLPE_35kV_1_Phase	phases=1	length=1032.9559	units=ft
New	Line.05410_108391UG	bus1=N292843.2	bus2=N292831.2	linecode=UG_1/0_Al_XLPE_35kV_1_Phase	phases=1	length=876.6535	units=ft
New	Line.05410_108392UG	bus1=N292851.2	bus2=N292843.2	linecode=UG_1/0_Al_XLPE_35kV_1_Phase	phases=1	length=405.728	units=ft
New	Line.05410_108393UG	bus1=N292870.2	bus2=N292851.2	linecode=UG_1/0_Al_XLPE_35kV_1_Phase	phases=1	length=778.2971	units=ft
New	Line.05410_108394UG	bus1=N292849.2	bus2=N292870.2	linecode=UG_1/0_Al_XLPE_35kV_1_Phase	phases=1	length=463.6675	units=ft
New	Line.05410_108395UG	bus1=N292858.2	bus2=N292849.2	linecode=UG_1/0_Al_XLPE_35kV_1_Phase	phases=1	length=348.3044	units=ft
New	Line.05410_108396UG	bus1=N292875.2	bus2=N292858.2	linecode=UG_1/0_Al_XLPE_35kV_1_Phase	phases=1	length=662.9128	units=ft
New	Line.05410_108397UG	bus1=N292860.2	bus2=N292875.2	linecode=UG_1/0_Al_XLPE_35kV_1_Phase	phases=1	length=584.3504	units=ft
New	Line.05410_108398UG	bus1=N292834.2	bus2=N292838.2	linecode=UG_1/0_Al_XLPE_35kV_1_Phase	phases=1	length=255.2209	units=ft
New	Line.05410_108399UG	bus1=N292824.2	bus2=N292834.2	linecode=UG_1/0_Al_XLPE_35kV_1_Phase	phases=1	length=251.544	units=ft
New	Line.05410_108400UG	bus1=N292818.2	bus2=N292824.2	linecode=UG_1/0_Al_XLPE_35kV_1_Phase	phases=1	length=337.6168	units=ft
New	Line.05410_108401UG	bus1=N292808.2	bus2=N292818.2	linecode=UG_1/0_Al_XLPE_35kV_1_Phase	phases=1	length=328.8111	units=ft
New	Line.05410_108402UG	bus1=N292797.2	bus2=N292808.2	linecode=UG_1/0_Al_XLPE_35kV_1_Phase	phases=1	length=383.2157	units=ft
New	Line.05410_108403UG	bus1=N292794.2	bus2=N292797.2	linecode=UG_1/0_Al_XLPE_35kV_1_Phase	phases=1	length=578.2432	units=ft
New	Line.05410_108405UG	bus1=N292717.1	bus2=N292721.1	linecode=UG_1/0_Al_XLPE_35kV_1_Phase	phases=1	length=159.1841	units=ft
New	Line.05410_108406UG	bus1=N292709.1	bus2=N292717.1	linecode=UG_1/0_Al_XLPE_35kV_1_Phase	phases=1	length=308.7458	units=ft
New	Line.05410_108407UG	bus1=N292702.1	bus2=N292709.1	linecode=UG_1/0_Al_XLPE_35kV_1_Phase	phases=1	length=345.1	units=ft
New	Line.05410_108408UG	bus1=N300801.1	bus2=N292702.1	linecode=UG_1/0_Al_XLPE_35kV_1_Phase	phases=1	length=698.3681	units=ft
New	Line.05410_108409UG	bus1=N300817.1	bus2=N300801.1	linecode=UG_1/0_Al_XLPE_35kV_1_Phase	phases=1	length=420.0976	units=ft
New	Line.05410_108410UG	bus1=N300827.1	bus2=N300817.1	linecode=UG_1/0_Al_XLPE_35kV_1_Phase	phases=1	length=291.6951	units=ft
New	Line.05410_108411UG	bus1=N300850.1	bus2=N300827.1	linecode=UG_1/0_Al_XLPE_35kV_1_Phase	phases=1	length=418.2917	units=ft
New	Line.05410_108412UG	bus1=N283862.3	bus2=N283866.3	linecode=UG_1/0_Al_XLPE_35kV_1_Phase	phases=1	length=421.9007	units=ft
New	Line.05410_108413UG	bus1=N283866.3	bus2=N283874.3	linecode=UG_1/0_Al_XLPE_35kV_1_Phase	phases=1	length=499.243	units=ft
New	Line.05410_108414UG	bus1=N292568.3	bus2=N283874.3	linecode=UG_1/0_Al_XLPE_35kV_1_Phase	phases=1	length=2174.7504	units=ft
New	Line.05410_108421UG	bus1=N274273.3	bus2=N274248.3	linecode=UG_1/0_Al_XLPE_35kV_1_Phase	phases=1	length=634.222	units=ft
New	Line.05410_108422UG	bus1=N274248.3	bus2=N274258.3	linecode=UG_1/0_Al_XLPE_35kV_1_Phase	phases=1	length=558.2481	units=ft
New	Line.05410_108423UG	bus1=N274269.3	bus2=N274258.3	linecode=UG_1/0_Al_XLPE_35kV_1_Phase	phases=1	length=449.0585	units=ft
New	Line.05410_108424UG	bus1=N274281.3	bus2=N274269.3	linecode=UG_1/0_Al_XLPE_35kV_1_Phase	phases=1	length=347.0896	units=ft
New	Line.05410_108425UG	bus1=N274291.3	bus2=N274281.3	linecode=UG_1/0_Al_XLPE_35kV_1_Phase	phases=1	length=302.8367	units=ft
New	Line.05410_108426UG	bus1=N274305.3	bus2=N274291.3	linecode=UG_1/0_Al_XLPE_35kV_1_Phase	phases=1	length=331.6135	units=ft
New	Line.05410_108427UG	bus1=N274321.3	bus2=N274305.3	linecode=UG_1/0_Al_XLPE_35kV_1_Phase	phases=1	length=300.1188	units=ft
New	Line.05410_108428UG	bus1=N274333.3	bus2=N274321.3	linecode=UG_1/0_Al_XLPE_35kV_1_Phase	phases=1	length=437.7563	units=ft
New	Line.05410_108429UG	bus1=N274333.3	bus2=N284042.3	linecode=UG_1/0_Al_XLPE_35kV_1_Phase	phases=1	length=440	units=ft
New	Line.05410_108430UG	bus1=N284042.3	bus2=N284038.3	linecode=UG_1/0_Al_XLPE_35kV_1_Phase	phases=1	length=252.4841	units=ft
New	Line.05410_108433UG	bus1=N284090.3	bus2=N274352.3	linecode=UG_1/0_Al_XLPE_35kV_1_Phase	phases=1	length=232.3501	units=ft
New	Line.05410_108434UG	bus1=N274384.3	bus2=N284090.3	linecode=UG_1/0_Al_XLPE_35kV_1_Phase	phases=1	length=527.5706	units=ft
New	Line.05410_108435UG	bus1=N284104.3	bus2=N284081.3	linecode=UG_1/0_Al_XLPE_35kV_1_Phase	phases=1	length=473.579	units=ft
New	Line.05410_108436UG	bus1=N284089.3	bus2=N284081.3	linecode=UG_1/0_Al_XLPE_35kV_1_Phase	phases=1	length=199.4713	units=ft
New	Line.05410_108437UG	bus1=N284074.3	bus2=N284089.3	linecode=UG_1/0_Al_XLPE_35kV_1_Phase	phases=1	length=309.6685	units=ft
New	Line.05410_108438UG	bus1=N274517.2	bus2=N274540.2	linecode=UG_1/0_Al_XLPE_35kV_1_Phase	phases=1	length=930.4089	units=ft
New	Line.05410_108439UG	bus1=N274521.2	bus2=N274531.2	linecode=UG_1/0_Al_XLPE_35kV_1_Phase	phases=1	length=664.7509	units=ft
New	Line.05410_108440UG	bus1=N284284.2	bus2=N274540.2	linecode=UG_1/0_Al_XLPE_35kV_1_Phase	phases=1	length=388.9846	units=ft
New	Line.05410_108441UG	bus1=N274531.2	bus2=N284284.2	linecode=UG_1/0_Al_XLPE_35kV_1_Phase	phases=1	length=799.6307	units=ft
New	Line.05410_108442UG	bus1=N274539.2	bus2=N274521.2	linecode=UG_1/0_Al_XLPE_35kV_1_Phase	phases=1	length=833.2074	units=ft
New	Line.05410_108443UG	bus1=N274534.2	bus2=N274539.2	linecode=UG_1/0_Al_XLPE_35kV_1_Phase	phases=1	length=730.3111	units=ft
New	Line.05410_108444UG	bus1=N284200.2	bus2=N284181.2	linecode=UG_1/0_Al_XLPE_35kV_1_Phase	phases=1	length=631.6717	units=ft
New	Line.05410_108445UG	bus1=N284208.2	bus2=N284200.2	linecode=UG_1/0_Al_XLPE_35kV_1_Phase	phases=1	length=187.4842	units=ft
New	Line.05410_108446UG	bus1=N284225.2	bus2=N284208.2	linecode=UG_1/0_Al_XLPE_35kV_1_Phase	phases=1	length=556.9747	units=ft
New	Line.05410_108447UG	bus1=N284250.2	bus2=N284225.2	linecode=UG_1/0_Al_XLPE_35kV_1_Phase	phases=1	length=633.4894	units=ft
New	Line.05410_108448UG	bus1=N284255.2	bus2=N284250.2	linecode=UG_1/0_Al_XLPE_35kV_1_Phase	phases=1	length=379.8995	units=ft
New	Line.05410_108449UG	bus1=N284220.2	bus2=N284204.2	linecode=UG_1/0_Al_XLPE_35kV_1_Phase	phases=1	length=750.134	units=ft
New	Line.05410_108450UG	bus1=N284220.2	bus2=N284232.2	linecode=UG_1/0_Al_XLPE_35kV_1_Phase	phases=1	length=410.8757	units=ft
New	Line.05410_108451UG	bus1=N284232.2	bus2=N284245.2	linecode=UG_1/0_Al_XLPE_35kV_1_Phase	phases=1	length=594.0257	units=ft
New	Line.05410_108452UG	bus1=N284247.2	bus2=N284278.2	linecode=UG_1/0_Al_XLPE_35kV_1_Phase	phases=1	length=686.6111	units=ft
New	Line.05410_108453UG	bus1=N284251.2	bus2=N284247.2	linecode=UG_1/0_Al_XLPE_35kV_1_Phase	phases=1	length=89.5749	units=ft
New	Line.05410_108454UG	bus1=N284189.3	bus2=N284172.3	linecode=UG_1/0_Al_XLPE_35kV_1_Phase	phases=1	length=336.8616	units=ft
New	Line.05410_108455UG	bus1=N284189.3	bus2=N284195.3	linecode=UG_1/0_Al_XLPE_35kV_1_Phase	phases=1	length=325	units=ft
New	Line.05410_108456UG	bus1=N284214.3	bus2=N284195.3	linecode=UG_1/0_Al_XLPE_35kV_1_Phase	phases=1	length=371.4186	units=ft
New	Line.05410_108457UG	bus1=N284228.3	bus2=N284214.3	linecode=UG_1/0_Al_XLPE_35kV_1_Phase	phases=1	length=577.0536	units=ft
New	Line.05410_108458UG	bus1=N284192.3	bus2=N284203.3	linecode=UG_1/0_Al_XLPE_35kV_1_Phase	phases=1	length=312.0424	units=ft
New	Line.05410_108459UG	bus1=N284168.3	bus2=N284192.3	linecode=UG_1/0_Al_XLPE_35kV_1_Phase	phases=1	length=564.1583	units=ft
New	Line.05410_108460UG	bus1=N284139.3	bus2=N284168.3	linecode=UG_1/0_Al_XLPE_35kV_1_Phase	phases=1	length=261.1941	units=ft
New	Line.05410_108461UG	bus1=N284240.2	bus2=N284221.2	linecode=UG_1/0_Al_XLPE_35kV_1_Phase	phases=1	length=471.2608	units=ft
New	Line.05410_108462UG	bus1=N283642.2	bus2=N283675.2	linecode=UG_1/0_Al_XLPE_35kV_1_Phase	phases=1	length=617.0171	units=ft
New	Line.05410_108463UG	bus1=N283710.2	bus2=N283675.2	linecode=UG_1/0_Al_XLPE_35kV_1_Phase	phases=1	length=634.3537	units=ft
New	Line.05410_108464UG	bus1=N283684.2	bus2=N283710.2	linecode=UG_1/0_Al_XLPE_35kV_1_Phase	phases=1	length=647.4377	units=ft
New	Line.05410_108465UG	bus1=N283716.2	bus2=N283684.2	linecode=UG_1/0_Al_XLPE_35kV_1_Phase	phases=1	length=619.3274	units=ft
New	Line.05410_108466UG	bus1=N283731.2	bus2=N283716.2	linecode=UG_1/0_Al_XLPE_35kV_1_Phase	phases=1	length=528.6427	units=ft
New	Line.05410_108467UG	bus1=N283747.2	bus2=N283731.2	linecode=UG_1/0_Al_XLPE_35kV_1_Phase	phases=1	length=574.1637	units=ft
New	Line.05410_108468UG	bus1=N283772.2	bus2=N283747.2	linecode=UG_1/0_Al_XLPE_35kV_1_Phase	phases=1	length=779.2173	units=ft
New	Line.05410_108470UG	bus1=N283702.3	bus2=N283679.3	linecode=UG_1/0_Al_XLPE_35kV_1_Phase	phases=1	length=370.3355	units=ft
New	Line.05410_108471UG	bus1=N283722.3	bus2=N283702.3	linecode=UG_1/0_Al_XLPE_35kV_1_Phase	phases=1	length=393.4486	units=ft
New	Line.05410_108472UG	bus1=N274103.3	bus2=N283722.3	linecode=UG_1/0_Al_XLPE_35kV_1_Phase	phases=1	length=405.9623	units=ft
New	Line.05410_108473UG	bus1=N283753.3	bus2=N274103.3	linecode=UG_1/0_Al_XLPE_35kV_1_Phase	phases=1	length=690.9807	units=ft
New	Line.05410_108474UG	bus1=N283699.3	bus2=N283753.3	linecode=UG_1/0_Al_XLPE_35kV_1_Phase	phases=1	length=913.0026	units=ft
New	Line.05410_108475UG	bus1=N283659.3	bus2=N283699.3	linecode=UG_1/0_Al_XLPE_35kV_1_Phase	phases=1	length=478.9213	units=ft
New	Line.05410_108494UG	bus1=N274122.2	bus2=N274137.2	linecode=UG_1/0_Al_XLPE_35kV_1_Phase	phases=1	length=360	units=ft
New	Line.05410_108495UG	bus1=N274137.2	bus2=N274150.2	linecode=UG_1/0_Al_XLPE_35kV_1_Phase	phases=1	length=560	units=ft
New	Line.05410_108496UG	bus1=N274150.2	bus2=N283789.2	linecode=UG_1/0_Al_XLPE_35kV_1_Phase	phases=1	length=435	units=ft
New	Line.05410_108497UG	bus1=N283789.2	bus2=N283806.2	linecode=UG_1/0_Al_XLPE_35kV_1_Phase	phases=1	length=330	units=ft
New	Line.05410_108498UG	bus1=N283806.2	bus2=N283810.2	linecode=UG_1/0_Al_XLPE_35kV_1_Phase	phases=1	length=350	units=ft
New	Line.05410_108499UG	bus1=N283638.2	bus2=N283608.2	linecode=UG_1/0_Al_XLPE_35kV_1_Phase	phases=1	length=355	units=ft
New	Line.05410_108500UG	bus1=N300544.1	bus2=N300562.1	linecode=UG_1/0_Al_XLPE_35kV_1_Phase	phases=1	length=320.1273	units=ft
New	Line.05410_108501UG	bus1=N292266.1.2.3	bus2=N292260.1.2.3	linecode=UG_1/0_Al_XLPE_35kV	phases=3	length=193.7538	units=ft
New	Line.05410_108504UG	bus1=N292239.1.2.3	bus2=N292234.1.2.3	linecode=UG_1/0_Al_XLPE_35kV	phases=3	length=272.4311	units=ft
New	Line.05410_108508UG	bus1=N292332.1.2.3	bus2=N292354.1.2.3	linecode=UG_1/0_Al_XLPE_35kV	phases=3	length=373.8523	units=ft
New	Line.05410_108509UG	bus1=N292325.1.2.3	bus2=N292332.1.2.3	linecode=UG_1/0_Al_XLPE_35kV	phases=3	length=424.3065	units=ft
New	Line.05410_108510UG	bus1=N292349.3	bus2=N292351.3	linecode=UG_1/0_Al_XLPE_35kV_1_Phase	phases=1	length=60.5128	units=ft
New	Line.05410_108511UG	bus1=N292341.2	bus2=N292346.2	linecode=UG_1/0_Al_XLPE_35kV_1_Phase	phases=1	length=59.4963	units=ft
New	Line.05410_108512UG	bus1=N292333.1	bus2=N292338.1	linecode=UG_1/0_Al_XLPE_35kV_1_Phase	phases=1	length=56.733	units=ft
New	Line.05410_108513UG	bus1=N292357.1.2.3	bus2=N292359.1.2.3	linecode=UG_1/0_Al_XLPE_35kV	phases=3	length=31.2289	units=ft
New	Line.05410_108514UG	bus1=N292360.1	bus2=N292364.1	linecode=UG_1/0_Al_XLPE_35kV_1_Phase	phases=1	length=77.1169	units=ft
New	Line.05410_108515UG	bus1=N292380.1.2.3	bus2=N292396.1.2.3	linecode=UG_1/0_Al_XLPE_35kV	phases=3	length=258.7947	units=ft
New	Line.05410_108516UG	bus1=N292378.1.2.3	bus2=N292380.1.2.3	linecode=UG_1/0_Al_XLPE_35kV	phases=3	length=200.4201	units=ft
New	Line.05410_108517UG	bus1=N292382.1	bus2=N292385.1	linecode=UG_1/0_Al_XLPE_35kV_1_Phase	phases=1	length=82.6576	units=ft
New	Line.05410_108518UG	bus1=N292473.1.2.3	bus2=N292486.1.2.3	linecode=UG_1/0_Al_XLPE_35kV	phases=3	length=390.5378	units=ft
New	Line.05410_108520UG	bus1=N300490.1	bus2=N300495.1	linecode=UG_1/0_Al_XLPE_35kV_1_Phase	phases=1	length=360.2822	units=ft
New	Line.05410_108521UG	bus1=N292367.2	bus2=N292347.2	linecode=UG_1/0_Al_XLPE_35kV_1_Phase	phases=1	length=348	units=ft
New	Line.05410_108522UG	bus1=N292390.2	bus2=N292367.2	linecode=UG_1/0_Al_XLPE_35kV_1_Phase	phases=1	length=480	units=ft
New	Line.05410_108523UG	bus1=N283758.2	bus2=N292390.2	linecode=UG_1/0_Al_XLPE_35kV_1_Phase	phases=1	length=570	units=ft
New	Line.05410_108524UG	bus1=N283740.2	bus2=N283758.2	linecode=UG_1/0_Al_XLPE_35kV_1_Phase	phases=1	length=217.6879	units=ft
New	Line.05410_108525UG	bus1=N283721.2	bus2=N283740.2	linecode=UG_1/0_Al_XLPE_35kV_1_Phase	phases=1	length=286.9923	units=ft
New	Line.05410_108526UG	bus1=N283727.2	bus2=N283721.2	linecode=UG_1/0_Al_XLPE_35kV_1_Phase	phases=1	length=748.8959	units=ft
New	Line.05410_108527UG	bus1=N283712.2	bus2=N283744.2	linecode=UG_1/0_Al_XLPE_35kV_1_Phase	phases=1	length=713.3948	units=ft
New	Line.05410_108528UG	bus1=N283744.2	bus2=N283727.2	linecode=UG_1/0_Al_XLPE_35kV_1_Phase	phases=1	length=255.36	units=ft
New	Line.05410_108529UG	bus1=N283712.2	bus2=N292334.2	linecode=UG_1/0_Al_XLPE_35kV_1_Phase	phases=1	length=260.3101	units=ft
New	Line.05410_108530UG	bus1=N283742.2	bus2=N283724.2	linecode=UG_1/0_Al_XLPE_35kV_1_Phase	phases=1	length=361.9312	units=ft
New	Line.05410_108531UG	bus1=N283751.2	bus2=N283742.2	linecode=UG_1/0_Al_XLPE_35kV_1_Phase	phases=1	length=260.8296	units=ft
New	Line.05410_108532UG	bus1=N283737.2	bus2=N283735.2	linecode=UG_1/0_Al_XLPE_35kV_1_Phase	phases=1	length=1010.8974	units=ft
New	Line.05410_108533UG	bus1=N283724.2	bus2=N283728.2	linecode=UG_1/0_Al_XLPE_35kV_1_Phase	phases=1	length=729.8608	units=ft
New	Line.05410_108534UG	bus1=N283728.2	bus2=N283718.2	linecode=UG_1/0_Al_XLPE_35kV_1_Phase	phases=1	length=400.8807	units=ft
New	Line.05410_108535UG	bus1=N283718.2	bus2=N283737.2	linecode=UG_1/0_Al_XLPE_35kV_1_Phase	phases=1	length=217.6005	units=ft
New	Line.05410_108536UG	bus1=N283756.2	bus2=N283751.2	linecode=UG_1/0_Al_XLPE_35kV_1_Phase	phases=1	length=357.9492	units=ft
New	Line.05410_108537UG	bus1=N283786.2	bus2=N283780.2	linecode=UG_1/0_Al_XLPE_35kV_1_Phase	phases=1	length=348.5995	units=ft
New	Line.05410_108538UG	bus1=N283784.2	bus2=N283786.2	linecode=UG_1/0_Al_XLPE_35kV_1_Phase	phases=1	length=325	units=ft
New	Line.05410_108539UG	bus1=N292399.2	bus2=N283784.2	linecode=UG_1/0_Al_XLPE_35kV_1_Phase	phases=1	length=546.8269	units=ft
New	Line.05410_108540UG	bus1=N292373.2	bus2=N292399.2	linecode=UG_1/0_Al_XLPE_35kV_1_Phase	phases=1	length=430.2935	units=ft
New	Line.05410_108541UG	bus1=N292340.2	bus2=N292373.2	linecode=UG_1/0_Al_XLPE_35kV_1_Phase	phases=1	length=418.565	units=ft
...
!New	Line.05410_108543UG	bus1=N292420.3	bus2=N292412.3	linecode=UG_1/0_Al_XLPE_35kV_1_Phase	phases=1	length=475.9431	units=ft
New	Line.05410_108544UG	bus1=N292412.3	bus2=N292430.3	linecode=UG_1/0_Al_XLPE_35kV_1_Phase	phases=1	length=581.5818	units=ft
New	Line.05410_108545UG	bus1=N292430.3	bus2=N292438.3	linecode=UG_1/0_Al_XLPE_35kV_1_Phase	phases=1	length=268.3501	units=ft
New	Line.05410_108546UG	bus1=N292438.3	bus2=N292433.3	linecode=UG_1/0_Al_XLPE_35kV_1_Phase	phases=1	length=416.1966	units=ft
New	Line.05410_108547UG	bus1=N292453.3	bus2=N292423.3	linecode=UG_1/0_Al_XLPE_35kV_1_Phase	phases=1	length=763.7596	units=ft
New	Line.05410_108548UG	bus1=N283796.3	bus2=N292417.3	linecode=UG_1/0_Al_XLPE_35kV_1_Phase	phases=1	length=464.5988	units=ft
New	Line.05410_108549UG	bus1=N292417.3	bus2=N292419.3	linecode=UG_1/0_Al_XLPE_35kV_1_Phase	phases=1	length=45.0766	units=ft
New	Line.05410_108551UG	bus1=N292448.1.2.3	bus2=N292446.1.2.3	linecode=UG_1/0_Al_XLPE_35kV	phases=3	length=374.6368	units=ft
New	Line.05410_108552UG	bus1=N292435.1.2.3	bus2=N292446.1.2.3	linecode=UG_1/0_Al_XLPE_35kV	phases=3	length=230.6638	units=ft
New	Line.05410_108553UG	bus1=N292442.1	bus2=N292451.1	linecode=UG_1/0_Al_XLPE_35kV_1_Phase	phases=1	length=669.6791	units=ft
New	Line.05410_108554UG	bus1=N292468.1	bus2=N292466.1	linecode=UG_1/0_Al_XLPE_35kV_1_Phase	phases=1	length=384.291	units=ft
New	Line.05410_108555UG	bus1=N292525.1.2.3	bus2=N292517.1.2.3	linecode=UG_1/0_Al_XLPE_35kV	phases=3	length=420	units=ft
New	Line.05410_108556UG	bus1=N292461.1	bus2=N292459.1	linecode=UG_1/0_Al_XLPE_35kV_1_Phase	phases=1	length=104.8015	units=ft
New	Line.05410_108557UG	bus1=N292464.1	bus2=N292461.1	linecode=UG_1/0_Al_XLPE_35kV_1_Phase	phases=1	length=161.2592	units=ft
New	Line.05410_108558UG	bus1=N292474.1	bus2=N292464.1	linecode=UG_1/0_Al_XLPE_35kV_1_Phase	phases=1	length=198.6825	units=ft
New	Line.05410_108559UG	bus1=N292451.1	bus2=N292474.1	linecode=UG_1/0_Al_XLPE_35kV_1_Phase	phases=1	length=451.6008	units=ft
New	Line.05410_108560UG	bus1=N292490.1	bus2=N292512.1	linecode=UG_1/0_Al_XLPE_35kV_1_Phase	phases=1	length=204.5127	units=ft
!New	Line.05410_108561UG	bus1=N292506.1	bus2=N292504.1	linecode=UG_1/0_Al_XLPE_35kV_1_Phase	phases=1	length=17.8079	units=ft
New	Line.05410_108562UG	bus1=N292499.1.2.3	bus2=N292503.1.2.3	linecode=UG_1/0_Al_XLPE_35kV	phases=3	length=26.1568	units=ft
!New	Line.05410_108563UG	bus1=N292516.1	bus2=N292513.1	linecode=UG_1/0_Al_XLPE_35kV_1_Phase	phases=1	length=173.4186	units=ft
New	Line.05410_108564UG	bus1=N292528.3	bus2=N292515.3	linecode=UG_1/0_Al_XLPE_35kV_1_Phase	phases=1	length=351.7986	units=ft
New	Line.05410_108565UG	bus1=N292522.3	bus2=N292528.3	linecode=UG_1/0_Al_XLPE_35kV_1_Phase	phases=1	length=403.3522	units=ft
New	Line.05410_108566UG	bus1=N292502.3	bus2=N292522.3	linecode=UG_1/0_Al_XLPE_35kV_1_Phase	phases=1	length=411.3472	units=ft
New	Line.05410_108567UG	bus1=N292498.3	bus2=N292502.3	linecode=UG_1/0_Al_XLPE_35kV_1_Phase	phases=1	length=400	units=ft
New	Line.05410_108568UG	bus1=N292510.3	bus2=N292498.3	linecode=UG_1/0_Al_XLPE_35kV_1_Phase	phases=1	length=100	units=ft
New	Line.05410_108569UG	bus1=N283865.3	bus2=N292510.3	linecode=UG_1/0_Al_XLPE_35kV_1_Phase	phases=1	length=411.0705	units=ft
New	Line.05410_108570UG	bus1=N283861.3	bus2=N283865.3	linecode=UG_1/0_Al_XLPE_35kV_1_Phase	phases=1	length=300	units=ft
New	Line.05410_108571UG	bus1=N283869.3	bus2=N283861.3	linecode=UG_1/0_Al_XLPE_35kV_1_Phase	phases=1	length=582.3144	units=ft
New	Line.05410_108572UG	bus1=N283858.3	bus2=N283869.3	linecode=UG_1/0_Al_XLPE_35kV_1_Phase	phases=1	length=205.571	units=ft
New	Line.05410_108573UG	bus1=N283853.3	bus2=N283858.3	linecode=UG_1/0_Al_XLPE_35kV_1_Phase	phases=1	length=380	units=ft
New	Line.05410_108574UG	bus1=N283847.3	bus2=N283853.3	linecode=UG_1/0_Al_XLPE_35kV_1_Phase	phases=1	length=308	units=ft
New	Line.05410_108575UG	bus1=N283841.3	bus2=N283847.3	linecode=UG_1/0_Al_XLPE_35kV_1_Phase	phases=1	length=561.076	units=ft
New	Line.05410_108576UG	bus1=N283838.3	bus2=N283841.3	linecode=UG_1/0_Al_XLPE_35kV_1_Phase	phases=1	length=235.8631	units=ft
New	Line.05410_108577UG	bus1=N292428.3	bus2=N283816.3	linecode=UG_1/0_Al_XLPE_35kV_1_Phase	phases=1	length=445.02	units=ft
New	Line.05410_108578UG	bus1=N292425.3	bus2=N292428.3	linecode=UG_1/0_Al_XLPE_35kV_1_Phase	phases=1	length=245.2907	units=ft
New	Line.05410_108579UG	bus1=N292449.3	bus2=N292425.3	linecode=UG_1/0_Al_XLPE_35kV_1_Phase	phases=1	length=543.6414	units=ft
New	Line.05410_108580UG	bus1=N300568.1	bus2=N300563.1	linecode=UG_1/0_Al_XLPE_35kV_1_Phase	phases=1	length=244.5697	units=ft
New	Line.05410_108581UG	bus1=N300573.1	bus2=N300568.1	linecode=UG_1/0_Al_XLPE_35kV_1_Phase	phases=1	length=387.9251	units=ft
New	Line.05410_108582UG	bus1=N300586.1	bus2=N300573.1	linecode=UG_1/0_Al_XLPE_35kV_1_Phase	phases=1	length=627.896	units=ft
New	Line.05410_108583UG	bus1=N300580.1	bus2=N300586.1	linecode=UG_1/0_Al_XLPE_35kV_1_Phase	phases=1	length=209.9254	units=ft
New	Line.05410_108584UG	bus1=N300604.1	bus2=N300580.1	linecode=UG_1/0_Al_XLPE_35kV_1_Phase	phases=1	length=331.3419	units=ft
New	Line.05410_108585UG	bus1=N300681.1	bus2=N300676.1	linecode=UG_1/0_Al_XLPE_35kV_1_Phase	phases=1	length=289.5445	units=ft
New	Line.05410_108586UG	bus1=N300661.1	bus2=N300681.1	linecode=UG_1/0_Al_XLPE_35kV_1_Phase	phases=1	length=132.1624	units=ft
New	Line.05410_108587UG	bus1=N300636.1	bus2=N300661.1	linecode=UG_1/0_Al_XLPE_35kV_1_Phase	phases=1	length=184.7752	units=ft
New	Line.05410_108588UG	bus1=N300633.1	bus2=N300636.1	linecode=UG_1/0_Al_XLPE_35kV_1_Phase	phases=1	length=309.2873	units=ft
New	Line.05410_108589UG	bus1=N300721.3	bus2=N300719.3	linecode=UG_1/0_Al_XLPE_35kV_1_Phase	phases=1	length=280	units=ft
New	Line.05410_108590UG	bus1=N300737.3	bus2=N300721.3	linecode=UG_1/0_Al_XLPE_35kV_1_Phase	phases=1	length=270.7381	units=ft
New	Line.05410_108591UG	bus1=N300746.3	bus2=N300737.3	linecode=UG_1/0_Al_XLPE_35kV_1_Phase	phases=1	length=168.311	units=ft
New	Line.05410_108592UG	bus1=N300744.3	bus2=N300746.3	linecode=UG_1/0_Al_XLPE_35kV_1_Phase	phases=1	length=336.4745	units=ft
New	Line.05410_108593UG	bus1=N300742.3	bus2=N300744.3	linecode=UG_1/0_Al_XLPE_35kV_1_Phase	phases=1	length=166.4289	units=ft
New	Line.05410_108594UG	bus1=N300726.3	bus2=N300767.3	linecode=UG_1/0_Al_XLPE_35kV_1_Phase	phases=1	length=558.4993	units=ft
New	Line.05410_108595UG	bus1=N300726.3	bus2=N300670.3	linecode=UG_1/0_Al_XLPE_35kV_1_Phase	phases=1	length=513.2224	units=ft
New	Line.05410_108596UG	bus1=N300670.3	bus2=N300620.3	linecode=UG_1/0_Al_XLPE_35kV_1_Phase	phases=1	length=391.6305	units=ft
New	Line.05410_108620UG	bus1=N284275.1	bus2=N284257.1	linecode=UG_1/0_Al_XLPE_35kV_1_Phase	phases=1	length=384.3432	units=ft
New	Line.05410_108621UG	bus1=N284212.1	bus2=N284206.1	linecode=UG_1/0_Al_XLPE_35kV_1_Phase	phases=1	length=405.4361	units=ft
New	Line.05410_108622UG	bus1=N284206.1	bus2=N284194.1	linecode=UG_1/0_Al_XLPE_35kV_1_Phase	phases=1	length=249.6624	units=ft
New	Line.05410_108623UG	bus1=N284194.1	bus2=N284211.1	linecode=UG_1/0_Al_XLPE_35kV_1_Phase	phases=1	length=1127.4431	units=ft
New	Line.05410_108624UG	bus1=N284223.1	bus2=N284211.1	linecode=UG_1/0_Al_XLPE_35kV_1_Phase	phases=1	length=401.8753	units=ft
New	Line.05410_108625UG	bus1=N284253.1	bus2=N284223.1	linecode=UG_1/0_Al_XLPE_35kV_1_Phase	phases=1	length=756.7242	units=ft
New	Line.05410_108626UG	bus1=N284063.3	bus2=N284057.3	linecode=UG_1/0_Al_XLPE_35kV_1_Phase	phases=1	length=226.84	units=ft
New	Line.05410_108627UG	bus1=N284057.3	bus2=N284006.3	linecode=UG_1/0_Al_XLPE_35kV_1_Phase	phases=1	length=635.4706	units=ft
New	Line.05410_108628UG	bus1=N284006.3	bus2=N283989.3	linecode=UG_1/0_Al_XLPE_35kV_1_Phase	phases=1	length=322.5184	units=ft
New	Line.05410_108629UG	bus1=N283955.3	bus2=N283953.3	linecode=UG_1/0_Al_XLPE_35kV_1_Phase	phases=1	length=313.6061	units=ft
New	Line.05410_108630UG	bus1=N283927.3	bus2=N283955.3	linecode=UG_1/0_Al_XLPE_35kV_1_Phase	phases=1	length=642.5969	units=ft
New	Line.05410_108631UG	bus1=N274231.3	bus2=N274237.3	linecode=UG_1/0_Al_XLPE_35kV_1_Phase	phases=1	length=363.6278	units=ft
New	Line.05410_108632UG	bus1=N283941.3	bus2=N283965.3	linecode=UG_1/0_Al_XLPE_35kV_1_Phase	phases=1	length=519.2655	units=ft
New	Line.05410_108633UG	bus1=N283965.3	bus2=N284008.3	linecode=UG_1/0_Al_XLPE_35kV_1_Phase	phases=1	length=483.1943	units=ft
New	Line.05410_108634UG	bus1=N284008.3	bus2=N284028.3	linecode=UG_1/0_Al_XLPE_35kV_1_Phase	phases=1	length=241.2003	units=ft
New	Line.05410_108635UG	bus1=N274231.3	bus2=N274224.3	linecode=UG_1/0_Al_XLPE_35kV_1_Phase	phases=1	length=249.6941	units=ft
New	Line.05410_108636UG	bus1=N274214.3	bus2=N274224.3	linecode=UG_1/0_Al_XLPE_35kV_1_Phase	phases=1	length=190.4439	units=ft
New	Line.05410_108637UG	bus1=N274200.3	bus2=N274214.3	linecode=UG_1/0_Al_XLPE_35kV_1_Phase	phases=1	length=242.4601	units=ft
New	Line.05410_108638UG	bus1=N274207.3	bus2=N274200.3	linecode=UG_1/0_Al_XLPE_35kV_1_Phase	phases=1	length=424.0696	units=ft
New	Line.05410_108639UG	bus1=N274227.3	bus2=N274207.3	linecode=UG_1/0_Al_XLPE_35kV_1_Phase	phases=1	length=464.1504	units=ft
New	Line.05410_108640UG	bus1=N274220.3	bus2=N274227.3	linecode=UG_1/0_Al_XLPE_35kV_1_Phase	phases=1	length=551.992	units=ft
New	Line.05410_108641UG	bus1=N274196.3	bus2=N274220.3	linecode=UG_1/0_Al_XLPE_35kV_1_Phase	phases=1	length=631.7619	units=ft
New	Line.05410_108642UG	bus1=N274183.3	bus2=N274191.3	linecode=UG_1/0_Al_XLPE_35kV_1_Phase	phases=1	length=727.6881	units=ft
New	Line.05410_108643UG	bus1=N274192.3	bus2=N274183.3	linecode=UG_1/0_Al_XLPE_35kV_1_Phase	phases=1	length=309.8729	units=ft
New	Line.05410_108645UG	bus1=N274192.3	bus2=N283873.3	linecode=UG_1/0_Al_XLPE_35kV_1_Phase	phases=1	length=2108.314	units=ft
New	Line.05410_108646UG	bus1=N284003.3	bus2=N284001.3	linecode=UG_1/0_Al_XLPE_35kV_1_Phase	phases=1	length=389.6661	units=ft
New	Line.05410_108647UG	bus1=N284005.3	bus2=N284003.3	linecode=UG_1/0_Al_XLPE_35kV_1_Phase	phases=1	length=26.9288	units=ft
New	Line.05410_108648UG	bus1=N284005.3	bus2=N283971.3	linecode=UG_1/0_Al_XLPE_35kV_1_Phase	phases=1	length=413.3392	units=ft
New	Line.05410_108649UG	bus1=N283961.3	bus2=N283948.3	linecode=UG_1/0_Al_XLPE_35kV_1_Phase	phases=1	length=740.0313	units=ft
New	Line.05410_108650UG	bus1=N283921.3	bus2=N283943.3	linecode=UG_1/0_Al_XLPE_35kV_1_Phase	phases=1	length=692.4425	units=ft
New	Line.05410_108651UG	bus1=N283909.3	bus2=N283921.3	linecode=UG_1/0_Al_XLPE_35kV_1_Phase	phases=1	length=435.9766	units=ft
New	Line.05410_108652UG	bus1=N283924.3	bus2=N283909.3	linecode=UG_1/0_Al_XLPE_35kV_1_Phase	phases=1	length=418.9132	units=ft
New	Line.05410_108653UG	bus1=N283892.3	bus2=N283917.3	linecode=UG_1/0_Al_XLPE_35kV_1_Phase	phases=1	length=942.1289	units=ft
New	Line.05410_108654UG	bus1=N283914.3	bus2=N283902.3	linecode=UG_1/0_Al_XLPE_35kV_1_Phase	phases=1	length=252.0683	units=ft
New	Line.05410_108655UG	bus1=N283935.3	bus2=N283914.3	linecode=UG_1/0_Al_XLPE_35kV_1_Phase	phases=1	length=444.5772	units=ft
New	Line.05410_108656UG	bus1=N283935.3	bus2=N283949.3	linecode=UG_1/0_Al_XLPE_35kV_1_Phase	phases=1	length=408.429	units=ft
New	Line.05410_108657UG	bus1=N283949.3	bus2=N283967.3	linecode=UG_1/0_Al_XLPE_35kV_1_Phase	phases=1	length=270.3098	units=ft
New	Line.05410_108658UG	bus1=N284024.3	bus2=N283967.3	linecode=UG_1/0_Al_XLPE_35kV_1_Phase	phases=1	length=910.0716	units=ft
New	Line.05410_108659UG	bus1=N284023.3	bus2=N283986.3	linecode=UG_1/0_Al_XLPE_35kV_1_Phase	phases=1	length=703.0806	units=ft
New	Line.05410_108660UG	bus1=N283986.3	bus2=N284012.3	linecode=UG_1/0_Al_XLPE_35kV_1_Phase	phases=1	length=360.3962	units=ft
New	Line.05410_108661UG	bus1=N284024.3	bus2=N284012.3	linecode=UG_1/0_Al_XLPE_35kV_1_Phase	phases=1	length=295.5512	units=ft
New	Line.05410_108662UG	bus1=N284023.3	bus2=N284043.3	linecode=UG_1/0_Al_XLPE_35kV_1_Phase	phases=1	length=666.4665	units=ft
New	Line.05410_108663UG	bus1=N283971.3	bus2=N283961.3	linecode=UG_1/0_Al_XLPE_35kV_1_Phase	phases=1	length=216.9795	units=ft
New	Line.05410_108664UG	bus1=N283888.3	bus2=N283902.3	linecode=UG_1/0_Al_XLPE_35kV_1_Phase	phases=1	length=484.9882	units=ft
!New	Line.05410_108665UG	bus1=N283893.3	bus2=N283892.3	linecode=UG_1/0_Al_XLPE_35kV_1_Phase	phases=1	length=209.5652	units=ft
New	Line.05410_108666UG	bus1=N283888.3	bus2=N283893.3	linecode=UG_1/0_Al_XLPE_35kV_1_Phase	phases=1	length=480.0622	units=ft
New	Line.05410_108669UG	bus1=N283651.3	bus2=N283636.3	linecode=UG_1/0_Al_XLPE_35kV_1_Phase	phases=1	length=608.7053	units=ft
New	Line.05410_108670UG	bus1=N283582.3	bus2=N283612.3	linecode=UG_1/0_Al_XLPE_35kV_1_Phase	phases=1	length=520.2357	units=ft
New	Line.05410_108671UG	bus1=N283544.3	bus2=N283582.3	linecode=UG_1/0_Al_XLPE_35kV_1_Phase	phases=1	length=625.5242	units=ft
New	Line.05410_108672UG	bus1=N283665.3	bus2=N283651.3	linecode=UG_1/0_Al_XLPE_35kV_1_Phase	phases=1	length=453.7288	units=ft
New	Line.05410_108673UG	bus1=N283558.3	bus2=N283585.3	linecode=UG_1/0_Al_XLPE_35kV_1_Phase	phases=1	length=641.9919	units=ft
New	Line.05410_108674UG	bus1=N283556.3	bus2=N283558.3	linecode=UG_1/0_Al_XLPE_35kV_1_Phase	phases=1	length=441.9226	units=ft
New	Line.05410_108675UG	bus1=N283577.3	bus2=N283556.3	linecode=UG_1/0_Al_XLPE_35kV_1_Phase	phases=1	length=566.8959	units=ft
New	Line.05410_108676UG	bus1=N283594.3	bus2=N283577.3	linecode=UG_1/0_Al_XLPE_35kV_1_Phase	phases=1	length=436.8464	units=ft
New	Line.05410_108677UG	bus1=N283598.3	bus2=N283594.3	linecode=UG_1/0_Al_XLPE_35kV_1_Phase	phases=1	length=310.8978	units=ft
New	Line.05410_108678UG	bus1=N284046.1	bus2=N284065.1	linecode=UG_1/0_Al_XLPE_35kV_1_Phase	phases=1	length=223.1658	units=ft
New	Line.05410_108679UG	bus1=N284060.3	bus2=N284045.3	linecode=UG_1/0_Al_XLPE_35kV_1_Phase	phases=1	length=216.1311	units=ft
New	Line.05410_108680UG	bus1=N284049.3	bus2=N284060.3	linecode=UG_1/0_Al_XLPE_35kV_1_Phase	phases=1	length=572.3274	units=ft
New	Line.05410_108681UG	bus1=N284055.3	bus2=N284049.3	linecode=UG_1/0_Al_XLPE_35kV_1_Phase	phases=1	length=63.1127	units=ft
New	Line.05410_108682UG	bus1=N1385522.3	bus2=N283665.3	linecode=UG_1/0_Al_XLPE_35kV_1_Phase	phases=1	length=352.8469	units=ft
New	Line.05410_108683UG	bus1=N292730.2	bus2=N292742.2	linecode=UG_1/0_Al_XLPE_35kV_1_Phase	phases=1	length=472.2455	units=ft
New	Line.05410_108684UG	bus1=N292368.1.2.3	bus2=N292365.1.2.3	linecode=UG_1/0_Al_XLPE_35kV	phases=3	length=30.8307	units=ft
New	Line.05410_108686UG	bus1=N292328.1.2.3	bus2=N292329.1.2.3	linecode=UG_1/0_Al_XLPE_35kV	phases=3	length=12.1148	units=ft
New	Line.05410_108689UG	bus1=N283883.3	bus2=N283913.3	linecode=UG_1/0_Al_XLPE_35kV_1_Phase	phases=1	length=531.6532	units=ft
New	Line.05410_108690UG	bus1=N283872.3	bus2=N283862.3	linecode=UG_1/0_Al_XLPE_35kV_1_Phase	phases=1	length=569.4095	units=ft
New	Line.05410_108691UG	bus1=N283878.3	bus2=N283885.3	linecode=UG_1/0_Al_XLPE_35kV_1_Phase	phases=1	length=431.0056	units=ft
!New	Line.05410_108692UG	bus1=N283885.3	bus2=N283894.3	linecode=UG_1/0_Al_XLPE_35kV_1_Phase	phases=1	length=395.2116	units=ft
New	Line.05410_108695UG	bus1=N292274.1.2.3	bus2=N292270.1.2.3	linecode=UG_1/0_Al_XLPE_35kV	phases=3	length=283.369	units=ft
New	Line.05410_108696UG	bus1=N292323.2	bus2=N292320.2	linecode=UG_1/0_Al_XLPE_35kV_1_Phase	phases=1	length=316	units=ft
New	Line.05410_108697UG	bus1=N292347.2	bus2=N292323.2	linecode=UG_1/0_Al_XLPE_35kV_1_Phase	phases=1	length=480.0482	units=ft
New	Line.05410_108698UG	bus1=N283687.2	bus2=N292334.2	linecode=UG_1/0_Al_XLPE_35kV_1_Phase	phases=1	length=391.5734	units=ft
New	Line.05410_108699UG	bus1=N292282.3	bus2=N292275.3	linecode=UG_1/0_Al_XLPE_35kV_1_Phase	phases=1	length=107.9661	units=ft
New	Line.05410_108700UG	bus1=N283623.3	bus2=N283598.3	linecode=UG_1/0_Al_XLPE_35kV_1_Phase	phases=1	length=437.1512	units=ft
New	Line.05410_108701UG	bus1=N283694.2	bus2=N283687.2	linecode=UG_1/0_Al_XLPE_35kV_1_Phase	phases=1	length=373.3914	units=ft
New	Line.05410_108704UG	bus1=N274384.3	bus2=N284104.3	linecode=UG_1/0_Al_XLPE_35kV_1_Phase	phases=1	length=685.6717	units=ft
New	Line.05410_108705UG	bus1=N284179.2	bus2=N284162.2	linecode=UG_1/0_Al_XLPE_35kV_1_Phase	phases=1	length=718.4731	units=ft
New	Line.05410_108706UG	bus1=N274396.2	bus2=N284133.2	linecode=UG_1/0_Al_XLPE_35kV_1_Phase	phases=1	length=284.3977	units=ft
New	Line.05410_108707UG	bus1=N274488.2	bus2=N274469.2	linecode=UG_1/0_Al_XLPE_35kV_1_Phase	phases=1	length=766.7098	units=ft
New	Line.05410_108708UG	bus1=N274459.1	bus2=N274470.1	linecode=UG_1/0_Al_XLPE_35kV_1_Phase	phases=1	length=204.1532	units=ft
New	Line.05410_108709UG	bus1=N274440.1	bus2=N274411.1	linecode=UG_1/0_Al_XLPE_35kV_1_Phase	phases=1	length=897.4372	units=ft
New	Line.05410_108710UG	bus1=N274440.1	bus2=N274436.1	linecode=UG_1/0_Al_XLPE_35kV_1_Phase	phases=1	length=310.147	units=ft
New	Line.05410_108711UG	bus1=N274436.1	bus2=N274448.1	linecode=UG_1/0_Al_XLPE_35kV_1_Phase	phases=1	length=339.5964	units=ft
!New	Line.05410_108712UG	bus1=N300525.1	bus2=N300535.1	linecode=UG_1/0_Al_XLPE_35kV_1_Phase	phases=1	length=71.2307	units=ft
New	Line.05410_108713UG	bus1=N300504.1	bus2=N300509.1	linecode=UG_1/0_Al_XLPE_35kV_1_Phase	phases=1	length=328.4994	units=ft
New	Line.05410_108714UG	bus1=N300514.1	bus2=N300504.1	linecode=UG_1/0_Al_XLPE_35kV_1_Phase	phases=1	length=530.4817	units=ft
New	Line.05410_108715UG	bus1=N300525.1	bus2=N300514.1	linecode=UG_1/0_Al_XLPE_35kV_1_Phase	phases=1	length=286.6364	units=ft
New	Line.05410_108716UG	bus1=N300539.1	bus2=N300541.1	linecode=UG_1/0_Al_XLPE_35kV_1_Phase	phases=1	length=124.3935	units=ft
New	Line.05410_108717UG	bus1=N300541.1	bus2=N300547.1	linecode=UG_1/0_Al_XLPE_35kV_1_Phase	phases=1	length=50	units=ft
New	Line.05410_108718UG	bus1=N274394.2	bus2=N274396.2	linecode=UG_1/0_Al_XLPE_35kV_1_Phase	phases=1	length=610.9023	units=ft
New	Line.05410_108719UG	bus1=N292266.1.2.3	bus2=N292259.1.2.3	linecode=UG_1/0_Al_XLPE_35kV	phases=3	length=117.7273	units=ft
New	Line.05410_108721UG	bus1=N292270.1.2.3	bus2=N292264.1.2.3	linecode=UG_1/0_Al_XLPE_35kV	phases=3	length=247.6171	units=ft
New	Line.05410_108722UG	bus1=N292278.3	bus2=N283589.3	linecode=UG_1/0_Al_XLPE_35kV_1_Phase	phases=1	length=500.2196	units=ft
New	Line.05410_108723UG	bus1=N283585.3	bus2=N283617.3	linecode=UG_1/0_Al_XLPE_35kV_1_Phase	phases=1	length=554.7088	units=ft
New	Line.05410_108724UG	bus1=N283998.2	bus2=N284013.2	linecode=UG_1/0_Al_XLPE_35kV_1_Phase	phases=1	length=208.7032	units=ft
New	Line.05410_108725UG	bus1=N283976.2	bus2=N283998.2	linecode=UG_1/0_Al_XLPE_35kV_1_Phase	phases=1	length=403.2903	units=ft
!New	Line.05410_108726UG	bus1=N283993.2	bus2=N283995.2	linecode=UG_1/0_Al_XLPE_35kV_1_Phase	phases=1	length=117.4599	units=ft
New	Line.05410_108728UG	bus1=N283957.3	bus2=N283951.3	linecode=UG_1/0_Al_XLPE_35kV_1_Phase	phases=1	length=529.5792	units=ft
New	Line.05410_108729UG	bus1=N283938.3	bus2=N283957.3	linecode=UG_1/0_Al_XLPE_35kV_1_Phase	phases=1	length=744.6068	units=ft
New	Line.05410_108730UG	bus1=N284014.2	bus2=N283999.2	linecode=UG_1/0_Al_XLPE_35kV_1_Phase	phases=1	length=660.6544	units=ft
New	Line.05410_108731UG	bus1=N292586.1	bus2=N292597.1	linecode=UG_1/0_Al_XLPE_35kV_1_Phase	phases=1	length=590.8882	units=ft
New	Line.05410_108733UG	bus1=N284133.2	bus2=N284162.2	linecode=UG_1/0_Al_XLPE_35kV_1_Phase	phases=1	length=407.8828	units=ft
New	Line.05410_108736UG	bus1=N283761.2	bus2=N283756.2	linecode=UG_1/0_Al_XLPE_35kV_1_Phase	phases=1	length=238.5904	units=ft
New	Line.05410_108737UG	bus1=N283759.2	bus2=N283761.2	linecode=UG_1/0_Al_XLPE_35kV_1_Phase	phases=1	length=378.5737	units=ft
New	Line.05410_108738UG	bus1=N283780.2	bus2=N283759.2	linecode=UG_1/0_Al_XLPE_35kV_1_Phase	phases=1	length=515.8234	units=ft
New	Line.05410_108739UG	bus1=N283735.2	bus2=N283714.2	linecode=UG_1/0_Al_XLPE_35kV_1_Phase	phases=1	length=593.1947	units=ft
New	Line.05410_108740UG	bus1=N292407.1.2.3	bus2=N292406.1.2.3	linecode=UG_1/0_Al_XLPE_35kV	phases=3	length=274.6569	units=ft
New	Line.05410_108746UG	bus1=N300499.1.2.3	bus2=N292352.1.2.3	linecode=UG_1/0_Al_XLPE_35kV	phases=3	length=1226.7594	units=ft
New	Line.05410_108747UG	bus1=N292275.3	bus2=N283614.3	linecode=UG_1/0_Al_XLPE_35kV_1_Phase	phases=1	length=801.7841	units=ft
New	Line.05410_108748UG	bus1=N283644.3	bus2=N283623.3	linecode=UG_1/0_Al_XLPE_35kV_1_Phase	phases=1	length=235.6977	units=ft
!New	Line.05410_108751UG	bus1=N283628.3	bus2=N283632.3	linecode=UG_1/0_Al_XLPE_35kV_1_Phase	phases=1	length=17.7496	units=ft
New	Line.05410_108752UG	bus1=N283589.3	bus2=N283601.3	linecode=UG_1/0_Al_XLPE_35kV_1_Phase	phases=1	length=547.4472	units=ft
New	Line.05410_108757UG	bus1=N300767.3	bus2=N300764.3	linecode=UG_1/0_Al_XLPE_35kV_1_Phase	phases=1	length=423.29	units=ft
New	Line.05410_108758UG	bus1=N283951.3	bus2=N283974.3	linecode=UG_1/0_Al_XLPE_35kV_1_Phase	phases=1	length=538.5454	units=ft
New	Line.05410_108759UG	bus1=N292777.3	bus2=N292770.3	linecode=UG_1/0_Al_XLPE_35kV_1_Phase	phases=1	length=616.3159	units=ft
New	Line.05410_108761UG	bus1=N300496.1.2.3	bus2=N292403.1.2.3	linecode=UG_1/0_Al_XLPE_35kV	phases=3	length=233.9713	units=ft
New	Line.05410_108763UG	bus1=N292326.1.2.3	bus2=N292325.1.2.3	linecode=UG_1/0_Al_XLPE_35kV	phases=3	length=633.2289	units=ft
New	Line.05410_108771UG	bus1=N292864.3	bus2=N292852.3	linecode=UG_1/0_Al_XLPE_35kV_1_Phase	phases=1	length=450.0045	units=ft
New	Line.05410_108772UG	bus1=N292865.3	bus2=N301056.3	linecode=UG_1/0_Al_XLPE_35kV_1_Phase	phases=1	length=866.0232	units=ft
New	Line.05410_108773UG	bus1=N301056.3	bus2=N301060.3	linecode=UG_1/0_Al_XLPE_35kV_1_Phase	phases=1	length=277.9201	units=ft
New	Line.05410_108775UG	bus1=N301060.3	bus2=N301061.3	linecode=UG_1/0_Al_XLPE_35kV_1_Phase	phases=1	length=428.367	units=ft
New	Line.05410_108776UG	bus1=N301061.3	bus2=N301049.3	linecode=UG_1/0_Al_XLPE_35kV_1_Phase	phases=1	length=492.5713	units=ft
New	Line.05410_108778UG	bus1=N283653.3	bus2=N283668.3	linecode=UG_1/0_Al_XLPE_35kV_1_Phase	phases=1	length=256.9405	units=ft
New	Line.05410_108783UG	bus1=N283669.3	bus2=N1385522.3	linecode=UG_1/0_Al_XLPE_35kV_1_Phase	phases=1	length=241.9479	units=ft
New	Line.05410_108784UG	bus1=N300524.1	bus2=N300544.1	linecode=UG_1/0_Al_XLPE_35kV_1_Phase	phases=1	length=539.4187	units=ft
New	Line.05410_108794UG	bus1=N292488.1.2.3	bus2=N292484.1.2.3	linecode=UG_1/0_Al_XLPE_35kV	phases=3	length=368	units=ft
New	Line.05410_108795UG	bus1=N292508.1.2.3	bus2=N292488.1.2.3	linecode=UG_1/0_Al_XLPE_35kV	phases=3	length=495	units=ft
New	Line.05410_108796UG	bus1=N292512.1.2.3	bus2=N292508.1.2.3	linecode=UG_1/0_Al_XLPE_35kV	phases=3	length=25.9091	units=ft
New	Line.05410_108798UG	bus1=N284304.1	bus2=N284308.1	linecode=UG_1/0_Al_XLPE_35kV_1_Phase	phases=1	length=364.6818	units=ft
New	Line.05410_108799UG	bus1=N284313.1	bus2=N284309.1	linecode=UG_1/0_Al_XLPE_35kV_1_Phase	phases=1	length=340.1902	units=ft
New	Line.05410_108800UG	bus1=N284280.1	bus2=N284282.1	linecode=UG_1/0_Al_XLPE_35kV_1_Phase	phases=1	length=18.8377	units=ft
New	Line.05410_108801UG	bus1=N284282.1	bus2=N284293.1	linecode=UG_1/0_Al_XLPE_35kV_1_Phase	phases=1	length=499.4317	units=ft
New	Line.05410_108802UG	bus1=N284293.1	bus2=N284275.1	linecode=UG_1/0_Al_XLPE_35kV_1_Phase	phases=1	length=1051.7928	units=ft
New	Line.05410_108803UG	bus1=N284219.1	bus2=N284234.1	linecode=UG_1/0_Al_XLPE_35kV_1_Phase	phases=1	length=343.4539	units=ft
New	Line.05410_108804UG	bus1=N284219.1	bus2=N284212.1	linecode=UG_1/0_Al_XLPE_35kV_1_Phase	phases=1	length=273.37	units=ft
New	Line.05410_108805UG	bus1=N284165.3	bus2=N284172.3	linecode=UG_1/0_Al_XLPE_35kV_1_Phase	phases=1	length=240	units=ft
New	Line.05410_108806UG	bus1=N284196.2	bus2=N284204.2	linecode=UG_1/0_Al_XLPE_35kV_1_Phase	phases=1	length=205.0883	units=ft
New	Line.05410_108807UG	bus1=N274448.1	bus2=N274442.1	linecode=UG_1/0_Al_XLPE_35kV_1_Phase	phases=1	length=235.1486	units=ft
New	Line.05410_108811UG	bus1=N292595.1	bus2=N292616.1	linecode=UG_1/0_Al_XLPE_35kV_1_Phase	phases=1	length=362.8086	units=ft
New	Line.05410_108812UG	bus1=N292643.1	bus2=N292637.1	linecode=UG_1/0_Al_XLPE_35kV_1_Phase	phases=1	length=222.5445	units=ft
New	Line.05410_108813UG	bus1=N292616.1	bus2=N292618.1	linecode=UG_1/0_Al_XLPE_35kV_1_Phase	phases=1	length=468.1047	units=ft
New	Line.05410_108814UG	bus1=N292594.2	bus2=N292612.2	linecode=UG_1/0_Al_XLPE_35kV_1_Phase	phases=1	length=304.5906	units=ft
New	Line.05410_108816UG	bus1=N274475.2	bus2=N274488.2	linecode=UG_1/0_Al_XLPE_35kV_1_Phase	phases=1	length=341.2927	units=ft
New	Line.05410_108817UG	bus1=N292301.1	bus2=N292308.1	linecode=UG_1/0_Al_XLPE_35kV_1_Phase	phases=1	length=320.3108	units=ft
New	Line.05410_108820UG	bus1=N292619.1	bus2=N292603.1	linecode=UG_1/0_Al_XLPE_35kV_1_Phase	phases=1	length=205.1522	units=ft
New	Line.05410_108821UG	bus1=N292622.1	bus2=N292619.1	linecode=UG_1/0_Al_XLPE_35kV_1_Phase	phases=1	length=29.7676	units=ft
New	Line.05410_108822UG	bus1=N292628.1	bus2=N292626.1	linecode=UG_1/0_Al_XLPE_35kV_1_Phase	phases=1	length=167.3313	units=ft
New	Line.05410_108823UG	bus1=N292622.1	bus2=N292598.1	linecode=UG_1/0_Al_XLPE_35kV_1_Phase	phases=1	length=360.3739	units=ft
New	Line.05410_108824UG	bus1=N292457.3	bus2=N292449.3	linecode=UG_1/0_Al_XLPE_35kV_1_Phase	phases=1	length=292.9266	units=ft
!New	Line.05410_108825UG	bus1=N292479.3	bus2=N292457.3	linecode=UG_1/0_Al_XLPE_35kV_1_Phase	phases=1	length=368.2735	units=ft
New	Line.05410_108826UG	bus1=N292481.3	bus2=N292479.3	linecode=UG_1/0_Al_XLPE_35kV_1_Phase	phases=1	length=100	units=ft
New	Line.05410_108829UG	bus1=N283910.1	bus2=N283890.1	linecode=UG_1/0_Al_XLPE_35kV_1_Phase	phases=1	length=424.6825	units=ft
New	Line.05410_108830UG	bus1=N283960.1	bus2=N283946.1	linecode=UG_1/0_Al_XLPE_35kV_1_Phase	phases=1	length=519.2949	units=ft
New	Line.05410_108831UG	bus1=N283946.1	bus2=N283923.1	linecode=UG_1/0_Al_XLPE_35kV_1_Phase	phases=1	length=542.9908	units=ft
New	Line.05410_108832UG	bus1=N283929.1	bus2=N292564.1	linecode=UG_1/0_Al_XLPE_35kV_1_Phase	phases=1	length=501.2524	units=ft
New	Line.05410_108833UG	bus1=N283939.1	bus2=N283929.1	linecode=UG_1/0_Al_XLPE_35kV_1_Phase	phases=1	length=514.7158	units=ft
New	Line.05410_108834UG	bus1=N283900.1	bus2=N283939.1	linecode=UG_1/0_Al_XLPE_35kV_1_Phase	phases=1	length=920.2998	units=ft
New	Line.05410_108835UG	bus1=N283898.1	bus2=N283900.1	linecode=UG_1/0_Al_XLPE_35kV_1_Phase	phases=1	length=227.8604	units=ft
!New	Line.05410_108836UG	bus1=N283890.1	bus2=N283898.1	linecode=UG_1/0_Al_XLPE_35kV_1_Phase	phases=1	length=477.0691	units=ft
New	Line.05410_108838UG	bus1=N292606.1	bus2=N292602.1	linecode=UG_1/0_Al_XLPE_35kV_1_Phase	phases=1	length=273.0586	units=ft
New	Line.05410_108839UG	bus1=N292602.1	bus2=N292647.1	linecode=UG_1/0_Al_XLPE_35kV_1_Phase	phases=1	length=957.8983	units=ft
New	Line.05410_108841UG	bus1=N292623.1	bus2=N292625.1	linecode=UG_1/0_Al_XLPE_35kV_1_Phase	phases=1	length=63.8097	units=ft
...